$DATA1 SOURCE='HSPICE' VERSION='F-2011.09-SP2 32-BIT'
.TITLE ' '
 tplh             temper           alter#            
    failed         2.500e+01       1                 
