$DATA1 SOURCE='HSPICE' VERSION='F-2011.09-SP2 32-BIT'
.TITLE ' '
 propigation_delay istatic          pstatic          start_dyn         
 stop_dyn         idyn             pdyn             charge            
 energy           temper           alter#            
    failed        -2.500e-06       -6.250e-06          failed         
    failed           failed           failed           failed         
    failed         2.500e+01       1                 
