$DATA1 SOURCE='HSPICE' VERSION='F-2011.09-SP2 32-BIT'
.TITLE ' '
 propigation_delay istatic          pstatic          start_dyn         
 stop_dyn         idyn             pdyn             charge            
 energy           temper           alter#            
  6.268e-09       -6.961e-11       -1.740e-10        1.626e-09        
  1.758e-09       -9.420e-05       -2.355e-04       -1.241e-14        
 -3.104e-14        2.500e+01       1                 
