$DATA1 SOURCE='HSPICE' VERSION='F-2011.09-SP2 32-BIT'
.TITLE ' '
 propigation_delay istatic          pstatic          start_dyn         
 stop_dyn         idyn             pdyn             charge            
 energy           temper           alter#            
  1.035e-08       -6.688e-11       -1.672e-10        4.703e-09        
  5.633e-09       -5.154e-05       -1.288e-04       -4.794e-14        
 -1.199e-13        2.500e+01       1                 
