$DATA1 SOURCE='HSPICE' VERSION='F-2011.09-SP2 32-BIT'
.TITLE ' '
 propigation_delay istatic          pstatic          start_dyn         
 stop_dyn         idyn             pdyn             charge            
 energy           temper           alter#            
  6.308e-09       -6.688e-11       -1.672e-10        1.563e-09        
  1.670e-09       -6.290e-05       -1.573e-04       -6.687e-15        
 -1.672e-14        2.500e+01       1                 
