Using: /usr/local/apps/synopsys/current_hspice/hspice/linux/hspice nor2_250nm_sim_deck
