$DATA1 SOURCE='HSPICE' VERSION='F-2011.09-SP2 32-BIT'
.TITLE ' '
 tphl             tplh             istatic          pstatic           
 start_dyn        stop_dyn         idyn             pdyn              
 charge           energy           temper           alter#            
    failed           failed        -2.500e-06       -6.250e-06        
    failed           failed           failed           failed         
    failed           failed          25.0000        1                 
