$DATA1 SOURCE='HSPICE' VERSION='F-2011.09-SP2 32-BIT'
.TITLE ' '
 tphl             tplh             istatic          static            
 start_dynamic    stop_dynamic     idynamic         dynamic           
 resultint        energy           temper           alter#            
    failed           failed        -5.000e-08       -2.500e-09        
    failed           failed           failed           failed         
    failed           failed         2.500e+01       1                 
