$DATA1 SOURCE='HSPICE' VERSION='F-2011.09-SP2 32-BIT'
.TITLE ' '
 propigation_delay istatic          pstatic          start_dyn         
 stop_dyn         idyn             pdyn             charge            
 energy           temper           alter#            
  2.482e-10       -3.077e-11       -7.691e-11        6.787e-09        
  6.903e-09       -5.759e-05       -1.440e-04       -6.651e-15        
 -1.663e-14        2.500e+01       1                 
