Using: /usr/local/apps/synopsys/current_hspice/hspice/linux/hspice sim_deck
 ****** HSPICE -- F-2011.09-SP2 32-BIT (Feb 27 2012) linux ******               
  Copyright (C) 2011 Synopsys, Inc. All Rights Reserved.                        
  Unpublished-rights reserved under US copyright laws.
  This program is protected by law and is subject to the
  terms and conditions of the license agreement from Synopsys.
  Use of this program is your acceptance to be bound by the
  license agreement. HSPICE is the trademark of Synopsys, Inc.
  Input File: sim_deck                                                          
  Command line options: sim_deck
 lic:  
 lic: FLEXlm: v10.8 
 lic: USER:   goynese              HOSTNAME: dear119-05.engr.oregonstate.edu 
 lic: HOSTID: 7446a09dab74         PID:      23482 
 lic: Using FLEXlm license file: 
 lic: 7188@license.eecs.oregonstate.edu 
 lic: Checkout 1 hspice 
 lic: License/Maintenance for hspice will expire on 11-aug-2014/2013.03 
 lic: 7(in_use)/50(total) FLOATING license(s) on SERVER license.eecs.oregonstate
 lic:   
 Init: read install configuration file: /usr/local/apps/synopsys/current_hspice/hspice/meta.cfg
 **warning** (./256sramfinal:587)'.end' can not exist in include/lib files, ignored

 **warning**  runlvl smaller than 5, reset to 5  when accurate turned on
 scientific notation:
 a=10**-18  f=10**-15  p=10**-12  n=10**-9  u=10**-6
 m=10**-3   k=10**3    x=10**6    g=10**9 

 **warning**  runlvl smaller than 5, reset to 5  when accurate turned on

 **warning** multiple output options specified, using post    

1****** HSPICE -- F-2011.09-SP2 32-BIT (Feb 27 2012) linux ******               
 ******  
 

  ******  circuit name directory
 circuit number to circuit name directory
   number circuitname                     definition         multiplier
        0 main circuit
        1 xi309.                          sub1               1.00 
        2 xi310.                          sub1               1.00 
        3 xi311.                          sub1               1.00 
        4 xi312.                          sub1               1.00 
        5 xi313.                          sub1               1.00 
        6 xi314.                          sub1               1.00 
        7 xi315.                          sub1               1.00 
        8 xi316.                          sub1               1.00 
        9 xi317.                          sub1               1.00 
       10 xi318.                          sub1               1.00 
       11 xi319.                          sub1               1.00 
       12 xi320.                          sub1               1.00 
       13 xi321.                          sub1               1.00 
       14 xi322.                          sub1               1.00 
       15 xi323.                          sub1               1.00 
       16 xi324.                          sub1               1.00 
       17 xi308.                          decodernew_g2      1.00 
       18 xi276.                          sub2               1.00 
       19 xi277.                          sub2               1.00 
       20 xi278.                          sub2               1.00 
       21 xi279.                          sub2               1.00 
       22 xi280.                          sub2               1.00 
       23 xi281.                          sub2               1.00 
       24 xi282.                          sub2               1.00 
       25 xi283.                          sub2               1.00 
       26 xi284.                          sub2               1.00 
       27 xi285.                          sub2               1.00 
       28 xi286.                          sub2               1.00 
       29 xi288.                          sub2               1.00 
       30 xi289.                          sub2               1.00 
       31 xi290.                          sub2               1.00 
       32 xi291.                          sub2               1.00 
       33 xi292.                          sub2               1.00 
       34 xi293.                          sub2               1.00 
       35 xi294.                          sub2               1.00 
       36 xi295.                          sub2               1.00 
       37 xi296.                          sub2               1.00 
       38 xi297.                          sub2               1.00 
       39 xi298.                          sub2               1.00 
       40 xi299.                          sub2               1.00 
       41 xi300.                          sub2               1.00 
       42 xi301.                          sub2               1.00 
       43 xi302.                          sub2               1.00 
       44 xi303.                          sub2               1.00 
       45 xi304.                          sub2               1.00 
       46 xi305.                          sub2               1.00 
       47 xi306.                          sub2               1.00 
       48 xi307.                          sub2               1.00 
       49 xi261.                          inv_1              1.00 
       50 xi260.                          inv_1              1.00 
       51 xi262.                          inv_1              1.00 
       52 xi263.                          inv_1              1.00 
       53 xi264.                          inv_1              1.00 
       54 xi265.                          inv_1              1.00 
       55 xi266.                          inv_1              1.00 
       56 xi267.                          inv_1              1.00 
       57 xi268.                          inv_1              1.00 
       58 xi269.                          inv_1              1.00 
       59 xi270.                          inv_1              1.00 
       60 xi271.                          inv_1              1.00 
       61 xi272.                          inv_1              1.00 
       62 xi273.                          inv_1              1.00 
       63 xi274.                          inv_1              1.00 
       64 xi275.                          inv_1              1.00 
       65 xi255.                          sramcell_g3        1.00 
       66 xi254.                          sramcell_g3        1.00 
       67 xi253.                          sramcell_g3        1.00 
       68 xi252.                          sramcell_g3        1.00 
       69 xi251.                          sramcell_g3        1.00 
       70 xi250.                          sramcell_g3        1.00 
       71 xi249.                          sramcell_g3        1.00 
       72 xi248.                          sramcell_g3        1.00 
       73 xi247.                          sramcell_g3        1.00 
       74 xi246.                          sramcell_g3        1.00 
       75 xi245.                          sramcell_g3        1.00 
       76 xi244.                          sramcell_g3        1.00 
       77 xi243.                          sramcell_g3        1.00 
       78 xi242.                          sramcell_g3        1.00 
       79 xi241.                          sramcell_g3        1.00 
       80 xi240.                          sramcell_g3        1.00 
       81 xi239.                          sramcell_g3        1.00 
       82 xi238.                          sramcell_g3        1.00 
       83 xi237.                          sramcell_g3        1.00 
       84 xi236.                          sramcell_g3        1.00 
       85 xi235.                          sramcell_g3        1.00 
       86 xi234.                          sramcell_g3        1.00 
       87 xi233.                          sramcell_g3        1.00 
       88 xi232.                          sramcell_g3        1.00 
       89 xi231.                          sramcell_g3        1.00 
       90 xi230.                          sramcell_g3        1.00 
       91 xi229.                          sramcell_g3        1.00 
       92 xi228.                          sramcell_g3        1.00 
       93 xi227.                          sramcell_g3        1.00 
       94 xi226.                          sramcell_g3        1.00 
       95 xi225.                          sramcell_g3        1.00 
       96 xi224.                          sramcell_g3        1.00 
       97 xi223.                          sramcell_g3        1.00 
       98 xi222.                          sramcell_g3        1.00 
       99 xi221.                          sramcell_g3        1.00 
      100 xi220.                          sramcell_g3        1.00 
      101 xi219.                          sramcell_g3        1.00 
      102 xi218.                          sramcell_g3        1.00 
      103 xi217.                          sramcell_g3        1.00 
      104 xi216.                          sramcell_g3        1.00 
      105 xi215.                          sramcell_g3        1.00 
      106 xi214.                          sramcell_g3        1.00 
      107 xi213.                          sramcell_g3        1.00 
      108 xi212.                          sramcell_g3        1.00 
      109 xi211.                          sramcell_g3        1.00 
      110 xi210.                          sramcell_g3        1.00 
      111 xi209.                          sramcell_g3        1.00 
      112 xi208.                          sramcell_g3        1.00 
      113 xi207.                          sramcell_g3        1.00 
      114 xi206.                          sramcell_g3        1.00 
      115 xi205.                          sramcell_g3        1.00 
      116 xi204.                          sramcell_g3        1.00 
      117 xi203.                          sramcell_g3        1.00 
      118 xi202.                          sramcell_g3        1.00 
      119 xi201.                          sramcell_g3        1.00 
      120 xi200.                          sramcell_g3        1.00 
      121 xi199.                          sramcell_g3        1.00 
      122 xi198.                          sramcell_g3        1.00 
      123 xi197.                          sramcell_g3        1.00 
      124 xi196.                          sramcell_g3        1.00 
      125 xi195.                          sramcell_g3        1.00 
      126 xi194.                          sramcell_g3        1.00 
      127 xi193.                          sramcell_g3        1.00 
      128 xi192.                          sramcell_g3        1.00 
      129 xi191.                          sramcell_g3        1.00 
      130 xi190.                          sramcell_g3        1.00 
      131 xi189.                          sramcell_g3        1.00 
      132 xi188.                          sramcell_g3        1.00 
      133 xi95.                           sramcell_g3        1.00 
      134 xi94.                           sramcell_g3        1.00 
      135 xi93.                           sramcell_g3        1.00 
      136 xi92.                           sramcell_g3        1.00 
      137 xi91.                           sramcell_g3        1.00 
      138 xi90.                           sramcell_g3        1.00 
      139 xi89.                           sramcell_g3        1.00 
      140 xi88.                           sramcell_g3        1.00 
      141 xi87.                           sramcell_g3        1.00 
      142 xi86.                           sramcell_g3        1.00 
      143 xi85.                           sramcell_g3        1.00 
      144 xi84.                           sramcell_g3        1.00 
      145 xi83.                           sramcell_g3        1.00 
      146 xi82.                           sramcell_g3        1.00 
      147 xi81.                           sramcell_g3        1.00 
      148 xi80.                           sramcell_g3        1.00 
      149 xi79.                           sramcell_g3        1.00 
      150 xi78.                           sramcell_g3        1.00 
      151 xi77.                           sramcell_g3        1.00 
      152 xi76.                           sramcell_g3        1.00 
      153 xi75.                           sramcell_g3        1.00 
      154 xi74.                           sramcell_g3        1.00 
      155 xi73.                           sramcell_g3        1.00 
      156 xi72.                           sramcell_g3        1.00 
      157 xi71.                           sramcell_g3        1.00 
      158 xi70.                           sramcell_g3        1.00 
      159 xi69.                           sramcell_g3        1.00 
      160 xi68.                           sramcell_g3        1.00 
      161 xi67.                           sramcell_g3        1.00 
      162 xi66.                           sramcell_g3        1.00 
      163 xi65.                           sramcell_g3        1.00 
      164 xi64.                           sramcell_g3        1.00 
      165 xi63.                           sramcell_g3        1.00 
      166 xi62.                           sramcell_g3        1.00 
      167 xi61.                           sramcell_g3        1.00 
      168 xi60.                           sramcell_g3        1.00 
      169 xi59.                           sramcell_g3        1.00 
      170 xi58.                           sramcell_g3        1.00 
      171 xi57.                           sramcell_g3        1.00 
      172 xi56.                           sramcell_g3        1.00 
      173 xi55.                           sramcell_g3        1.00 
      174 xi54.                           sramcell_g3        1.00 
      175 xi53.                           sramcell_g3        1.00 
      176 xi52.                           sramcell_g3        1.00 
      177 xi51.                           sramcell_g3        1.00 
      178 xi50.                           sramcell_g3        1.00 
      179 xi49.                           sramcell_g3        1.00 
      180 xi48.                           sramcell_g3        1.00 
      181 xi178.                          sramcell_g3        1.00 
      182 xi177.                          sramcell_g3        1.00 
      183 xi176.                          sramcell_g3        1.00 
      184 xi175.                          sramcell_g3        1.00 
      185 xi174.                          sramcell_g3        1.00 
      186 xi173.                          sramcell_g3        1.00 
      187 xi172.                          sramcell_g3        1.00 
      188 xi171.                          sramcell_g3        1.00 
      189 xi170.                          sramcell_g3        1.00 
      190 xi169.                          sramcell_g3        1.00 
      191 xi168.                          sramcell_g3        1.00 
      192 xi167.                          sramcell_g3        1.00 
      193 xi166.                          sramcell_g3        1.00 
      194 xi165.                          sramcell_g3        1.00 
      195 xi164.                          sramcell_g3        1.00 
      196 xi163.                          sramcell_g3        1.00 
      197 xi162.                          sramcell_g3        1.00 
      198 xi161.                          sramcell_g3        1.00 
      199 xi160.                          sramcell_g3        1.00 
      200 xi159.                          sramcell_g3        1.00 
      201 xi158.                          sramcell_g3        1.00 
      202 xi157.                          sramcell_g3        1.00 
      203 xi156.                          sramcell_g3        1.00 
      204 xi155.                          sramcell_g3        1.00 
      205 xi154.                          sramcell_g3        1.00 
      206 xi153.                          sramcell_g3        1.00 
      207 xi152.                          sramcell_g3        1.00 
      208 xi151.                          sramcell_g3        1.00 
      209 xi150.                          sramcell_g3        1.00 
      210 xi149.                          sramcell_g3        1.00 
      211 xi148.                          sramcell_g3        1.00 
      212 xi147.                          sramcell_g3        1.00 
      213 xi146.                          sramcell_g3        1.00 
      214 xi145.                          sramcell_g3        1.00 
      215 xi144.                          sramcell_g3        1.00 
      216 xi143.                          sramcell_g3        1.00 
      217 xi142.                          sramcell_g3        1.00 
      218 xi141.                          sramcell_g3        1.00 
      219 xi140.                          sramcell_g3        1.00 
      220 xi139.                          sramcell_g3        1.00 
      221 xi138.                          sramcell_g3        1.00 
      222 xi137.                          sramcell_g3        1.00 
      223 xi136.                          sramcell_g3        1.00 
      224 xi135.                          sramcell_g3        1.00 
      225 xi134.                          sramcell_g3        1.00 
      226 xi133.                          sramcell_g3        1.00 
      227 xi132.                          sramcell_g3        1.00 
      228 xi131.                          sramcell_g3        1.00 
      229 xi130.                          sramcell_g3        1.00 
      230 xi129.                          sramcell_g3        1.00 
      231 xi128.                          sramcell_g3        1.00 
      232 xi127.                          sramcell_g3        1.00 
      233 xi126.                          sramcell_g3        1.00 
      234 xi125.                          sramcell_g3        1.00 
      235 xi124.                          sramcell_g3        1.00 
      236 xi123.                          sramcell_g3        1.00 
      237 xi122.                          sramcell_g3        1.00 
      238 xi121.                          sramcell_g3        1.00 
      239 xi120.                          sramcell_g3        1.00 
      240 xi119.                          sramcell_g3        1.00 
      241 xi118.                          sramcell_g3        1.00 
      242 xi117.                          sramcell_g3        1.00 
      243 xi116.                          sramcell_g3        1.00 
      244 xi115.                          sramcell_g3        1.00 
      245 xi114.                          sramcell_g3        1.00 
      246 xi113.                          sramcell_g3        1.00 
      247 xi112.                          sramcell_g3        1.00 
      248 xi111.                          sramcell_g3        1.00 
      249 xi110.                          sramcell_g3        1.00 
      250 xi109.                          sramcell_g3        1.00 
      251 xi108.                          sramcell_g3        1.00 
      252 xi107.                          sramcell_g3        1.00 
      253 xi106.                          sramcell_g3        1.00 
      254 xi105.                          sramcell_g3        1.00 
      255 xi104.                          sramcell_g3        1.00 
      256 xi103.                          sramcell_g3        1.00 
      257 xi102.                          sramcell_g3        1.00 
      258 xi101.                          sramcell_g3        1.00 
      259 xi100.                          sramcell_g3        1.00 
      260 xi99.                           sramcell_g3        1.00 
      261 xi98.                           sramcell_g3        1.00 
      262 xi97.                           sramcell_g3        1.00 
      263 xi96.                           sramcell_g3        1.00 
      264 xi187.                          sramcell_g3        1.00 
      265 xi186.                          sramcell_g3        1.00 
      266 xi185.                          sramcell_g3        1.00 
      267 xi184.                          sramcell_g3        1.00 
      268 xi183.                          sramcell_g3        1.00 
      269 xi182.                          sramcell_g3        1.00 
      270 xi181.                          sramcell_g3        1.00 
      271 xi180.                          sramcell_g3        1.00 
      272 xi179.                          sramcell_g3        1.00 
      273 xi47.                           sramcell_g3        1.00 
      274 xi46.                           sramcell_g3        1.00 
      275 xi45.                           sramcell_g3        1.00 
      276 xi44.                           sramcell_g3        1.00 
      277 xi43.                           sramcell_g3        1.00 
      278 xi42.                           sramcell_g3        1.00 
      279 xi41.                           sramcell_g3        1.00 
      280 xi40.                           sramcell_g3        1.00 
      281 xi39.                           sramcell_g3        1.00 
      282 xi38.                           sramcell_g3        1.00 
      283 xi37.                           sramcell_g3        1.00 
      284 xi36.                           sramcell_g3        1.00 
      285 xi35.                           sramcell_g3        1.00 
      286 xi34.                           sramcell_g3        1.00 
      287 xi33.                           sramcell_g3        1.00 
      288 xi32.                           sramcell_g3        1.00 
      289 xi31.                           sramcell_g3        1.00 
      290 xi30.                           sramcell_g3        1.00 
      291 xi29.                           sramcell_g3        1.00 
      292 xi28.                           sramcell_g3        1.00 
      293 xi27.                           sramcell_g3        1.00 
      294 xi26.                           sramcell_g3        1.00 
      295 xi25.                           sramcell_g3        1.00 
      296 xi24.                           sramcell_g3        1.00 
      297 xi23.                           sramcell_g3        1.00 
      298 xi22.                           sramcell_g3        1.00 
      299 xi21.                           sramcell_g3        1.00 
      300 xi20.                           sramcell_g3        1.00 
      301 xi19.                           sramcell_g3        1.00 
      302 xi18.                           sramcell_g3        1.00 
      303 xi17.                           sramcell_g3        1.00 
      304 xi16.                           sramcell_g3        1.00 
      305 xi15.                           sramcell_g3        1.00 
      306 xi14.                           sramcell_g3        1.00 
      307 xi13.                           sramcell_g3        1.00 
      308 xi12.                           sramcell_g3        1.00 
      309 xi11.                           sramcell_g3        1.00 
      310 xi10.                           sramcell_g3        1.00 
      311 xi9.                            sramcell_g3        1.00 
      312 xi8.                            sramcell_g3        1.00 
      313 xi7.                            sramcell_g3        1.00 
      314 xi6.                            sramcell_g3        1.00 
      315 xi5.                            sramcell_g3        1.00 
      316 xi4.                            sramcell_g3        1.00 
      317 xi3.                            sramcell_g3        1.00 
      318 xi2.                            sramcell_g3        1.00 
      319 xi1.                            sramcell_g3        1.00 
      320 xi0.                            sramcell_g3        1.00 
      321 xi308.xi35.                     inverter2_g1       1.00 
      322 xi308.xi34.                     inverter2_g1       1.00 
      323 xi308.xi33.                     inverter2_g1       1.00 
      324 xi308.xi32.                     inverter2_g1       1.00 
      325 xi308.xi31.                     and4_1             1.00 
      326 xi308.xi30.                     and4_1             1.00 
      327 xi308.xi29.                     and4_1             1.00 
      328 xi308.xi28.                     and4_1             1.00 
      329 xi308.xi20.                     and4_1             1.00 
      330 xi308.xi19.                     and4_1             1.00 
      331 xi308.xi18.                     and4_1             1.00 
      332 xi308.xi17.                     and4_1             1.00 
      333 xi308.xi16.                     and4_1             1.00 
      334 xi308.xi21.                     and4_1             1.00 
      335 xi308.xi22.                     and4_1             1.00 
      336 xi308.xi27.                     and4_1             1.00 
      337 xi308.xi26.                     and4_1             1.00 
      338 xi308.xi25.                     and4_1             1.00 
      339 xi308.xi24.                     and4_1             1.00 
      340 xi308.xi23.                     and4_1             1.00 
      341 xi276.xi4.                      inv_1              1.00 
      342 xi277.xi4.                      inv_1              1.00 
      343 xi278.xi4.                      inv_1              1.00 
      344 xi279.xi4.                      inv_1              1.00 
      345 xi280.xi4.                      inv_1              1.00 
      346 xi281.xi4.                      inv_1              1.00 
      347 xi282.xi4.                      inv_1              1.00 
      348 xi283.xi4.                      inv_1              1.00 
      349 xi284.xi4.                      inv_1              1.00 
      350 xi285.xi4.                      inv_1              1.00 
      351 xi286.xi4.                      inv_1              1.00 
      352 xi288.xi4.                      inv_1              1.00 
      353 xi289.xi4.                      inv_1              1.00 
      354 xi290.xi4.                      inv_1              1.00 
      355 xi291.xi4.                      inv_1              1.00 
      356 xi292.xi4.                      inv_1              1.00 
      357 xi293.xi4.                      inv_1              1.00 
      358 xi294.xi4.                      inv_1              1.00 
      359 xi295.xi4.                      inv_1              1.00 
      360 xi296.xi4.                      inv_1              1.00 
      361 xi297.xi4.                      inv_1              1.00 
      362 xi298.xi4.                      inv_1              1.00 
      363 xi299.xi4.                      inv_1              1.00 
      364 xi300.xi4.                      inv_1              1.00 
      365 xi301.xi4.                      inv_1              1.00 
      366 xi302.xi4.                      inv_1              1.00 
      367 xi303.xi4.                      inv_1              1.00 
      368 xi304.xi4.                      inv_1              1.00 
      369 xi305.xi4.                      inv_1              1.00 
      370 xi306.xi4.                      inv_1              1.00 
      371 xi307.xi4.                      inv_1              1.00 


 circuit parameter definitions
  parameter          =  value 

     0:sup                                                     = 2.500e+00      
     0:tphl                                                    =-1.235e-29      
     0:tplh                                                    =-1.235e-29      
     0:istatic                                                 =-1.235e-29      
     0:pstatic                                                 =-1.235e-29      
     0:start_dyn                                               =-1.235e-29      
     0:stop_dyn                                                =-1.235e-29      
     0:idyn                                                    =-1.235e-29      
     0:pdyn                                                    =-1.235e-29      
     0:charge                                                  =-1.235e-29      
     0:energy                                                  =-1.235e-29      




 constants  - tnom         kt           vt           gapsi        ni
            2.9815e+02   4.1163e-21   2.5692e-02   1.1156e+00   1.2565e+16 
1****** HSPICE -- F-2011.09-SP2 32-BIT (Feb 27 2012) linux ******               
 ******  
 

  ******  mos   model parameters tnom=  25.000 temp=  25.000 *****
 ***************************************************************************
 ***        model parameters  model name:   0:tsmc25dn model type:nmos   ***
 ***************************************************************************

   *** general parameters ***
    deriv=   0.           

   ***  level 49  model parameters  ***

      hspver=    2006.03               level=         49         
     version=        3.1            paramchk=          0         
      apwarn=          1                lite=          0         
      vgslim=          0             binUnit=          1         
      capMod=          2               xpart=        0.4         
      mobMod=          1              nqsMod=          0         
      stiMod=          0                 elm=          5         
    sfvtflag=          0                 tox=    5.8e-09 meter   
          xj=      1e-07 meter       binflag=          0         
        lmin=          0 meter          lmax=          0 meter   
        wmin=          0 meter          wmax=          0 meter   
        lref=          0 meter          wref=          0 meter   
        lint=4.39347e-09 meter          wint= 2.1265e-09 meter   
       lmult=          1               wmult=          1         
          ll=          0                 lln=          1         
          lw=          0                 lwn=          1         
         lwl=          0                  wl=          0         
         wln=          1                  ww=          0         
         wwn=          1                 wwl=          0         
         dwg=-3.40903e-09 m/V             dwb=2.79484e-09 m/V^1/2 
          xl=     -3e-08                  xw=          0         
          a0=    1.23186                 ags=   0.304333 V^-1    
          b0=6.67749e-08 meter            b1=      5e-06 meter   
        keta=0.000851805 V^-1           voff=  -0.102605 V       
       ngate=          0 cm^-3           vbx=          0 V       
         vbm=         -3 V                xt=   1.55e-07 meter   
        vth0=   0.430894 V               nch= 2.3549e+17 cm^-3   
        nsub=      6e+16 cm^-3           nlx= 1.4659e-07 meter   
      gamma1=          0 V^-1/2       gamma2=          0 V^-1/2  
          k1=   0.351943 V^1/2            k2=  0.0298493         
          k3=      0.001                 k3b=  0.0592323 V^-1    
          w0=      1e-05 meter          dvt0=  0.0183405         
        dvt1= 0.00489758                dvt2= -0.0252658 V^-1    
       dvt0w=          0 meter^-1      dvt1w=          0 meter^-1
       dvt2w=          0 V^-1           dsub= 0.00304547         
        eta0= 0.00348737                etab=0.000455799 V^-1    
          u0=    455.303 cm^2/V/sec         ua=5.22359e-10 m/V     
          ub=1.10471e-18 (m/V)^2          uc=3.28789e-11 V^-1    
        vsat=     105099 m/sec            a1=          0 v^-1    
          a2=          1               delta=       0.01 V       
        rdsw=    509.568 ohm-um         prwg=  0.0227558 V^-1    
        prwb=     -0.001 V^-1/2           wr=          1         
        pclm=    1.04463             pdiblc1=   0.144195         
     pdiblc2=0.000451338             pdiblcb=-2.81676e-05 V^-1    
      pscbe1=1.76111e+10 V/m          pscbe2=3.77292e-09 V/m     
       drout=   0.469872                pvag=  0.0361824         
     nfactor=   0.134489                cdsc= 0.00152751 f/m^2   
       cdscb=          0 f/V/m^2       cdscd=          0 f/V/m^2 
         cit=          0 f/m^2        alpha0=          0 m/V     
       beta0=         30 V               dlc=4.39347e-09 meter   
         dwc= 2.1265e-09 meter           clc=      1e-07 meter   
         cle=        0.6                cgso=   6.27e-10 f/m     
        cgdo=   6.27e-10 f/m            cgbo=          0 f/m     
        cgsl=          0 f/m            cgdl=          0 f/m     
      ckappa=        0.6                  cf=9.33852e-11 f/m     
        tnom=     300.15 K               kt1=      -0.11 V       
        kt1l=          0                 kt2=      0.022         
         ute=       -1.5                 ua1=   4.31e-09 m/V     
         ub1=  -7.61e-18 (m/V)^2         uc1=   -5.6e-11 m/V^2   
          at=      33000 m/s             prt=          0         
         using Berkeley noise model       noiMod=          1         
        noia=      1e+20                noib=      50000         
        noic=   -1.4e-12                  em=    4.1e+07         
          ef=          1                  af=          1         
          kf=          0              gdsnoi=-1.23457e-29         
         using Hspice diodes            using ACM 
         acm=         0                 hdif=         0 meter    
        ldif=         0 meter             js=         0 amp/m^2  
         jsw=         0 amp/m            xti=         0          
           n=         1                   cj=0.00191866 f/m^2    
          mj=  0.472173                   pb=  0.978405 V        
        cjsw=4.44159e-10 f/m             mjsw=  0.287112          
         php=  0.978405 V               pbsw (not used)           
      cjgate=4.44159e-10 f/m            cjswg (not used)           
       mjswg (not used)                 pbswg (not used)           
       lketa=-0.00614406               wketa=0.000751269         
       pvth0= 0.00134299                 pk2=-0.00314072         
       prdsw=   -61.8357         
 ***************************************************************************
 ***        model parameters  model name:   0:tsmc25dp model type:pmos   ***
 ***************************************************************************

   *** general parameters ***
    deriv=   0.           

   ***  level 49  model parameters  ***

      hspver=    2006.03               level=         49         
     version=        3.1            paramchk=          0         
      apwarn=          1                lite=          0         
      vgslim=          0             binUnit=          1         
      capMod=          2               xpart=        0.4         
      mobMod=          1              nqsMod=          0         
      stiMod=          0                 elm=          5         
    sfvtflag=          0                 tox=    5.8e-09 meter   
          xj=      1e-07 meter       binflag=          0         
        lmin=          0 meter          lmax=          0 meter   
        wmin=          0 meter          wmax=          0 meter   
        lref=          0 meter          wref=          0 meter   
        lint=8.71907e-09 meter          wint=2.74881e-08 meter   
       lmult=          1               wmult=          1         
          ll=          0                 lln=          1         
          lw=          0                 lwn=          1         
         lwl=          0                  wl=          0         
         wln=          1                  ww=          0         
         wwn=          1                 wwl=          0         
         dwg=-4.08759e-08 m/V             dwb=2.03201e-08 m/V^1/2 
          xl=     -3e-08                  xw=          0         
          a0=    1.38264                 ags=   0.419298 V^-1    
          b0= 2.8441e-06 meter            b1=      5e-06 meter   
        keta=  0.0208695 V^-1           voff=      -0.15 V       
       ngate=          0 cm^-3           vbx=          0 V       
         vbm=         -3 V                xt=   1.55e-07 meter   
        vth0=  -0.615873 V               nch= 4.1589e+17 cm^-3   
        nsub=      6e+16 cm^-3           nlx=      1e-09 meter   
      gamma1=          0 V^-1/2       gamma2=          0 V^-1/2  
          k1=   0.459838 V^1/2            k2=  0.0399415         
          k3=          0                 k3b=    8.74107 V^-1    
          w0=      1e-06 meter          dvt0=   0.624949         
        dvt1=   0.203296                dvt2= -0.0513763 V^-1    
       dvt0w=          0 meter^-1      dvt1w=          0 meter^-1
       dvt2w=          0 V^-1           dsub=    1.02871         
        eta0=   0.324124                etab=    -0.1842 V^-1    
          u0=    158.675 cm^2/V/sec         ua=2.20002e-10 m/V     
          ub=4.45742e-18 (m/V)^2          uc=1.02138e-10 V^-1    
        vsat=     185064 m/sec            a1=          0 v^-1    
          a2=          1               delta=       0.01 V       
        rdsw=    968.546 ohm-um         prwg=  -0.102648 V^-1    
        prwb=     -0.325 V^-1/2           wr=          1         
        pclm=    5.26546             pdiblc1= 0.00422834         
     pdiblc2= 0.00120452             pdiblcb= 0.00237525 V^-1    
      pscbe1=3.01146e+10 V/m          pscbe2=3.03704e-07 V/m     
       drout=          0                pvag=    8.95643         
     nfactor=    1.54605                cdsc=0.000141332 f/m^2   
       cdscb=          0 f/V/m^2       cdscd=          0 f/V/m^2 
         cit=          0 f/m^2        alpha0=          0 m/V     
       beta0=         30 V               dlc=8.71907e-09 meter   
         dwc=2.74881e-08 meter           clc=      1e-07 meter   
         cle=        0.6                cgso=   5.59e-10 f/m     
        cgdo=   5.59e-10 f/m            cgbo=          0 f/m     
        cgsl=          0 f/m            cgdl=          0 f/m     
      ckappa=        0.6                  cf=9.33852e-11 f/m     
        tnom=     300.15 K               kt1=      -0.11 V       
        kt1l=          0                 kt2=      0.022         
         ute=       -1.5                 ua1=   4.31e-09 m/V     
         ub1=  -7.61e-18 (m/V)^2         uc1=   -5.6e-11 m/V^2   
          at=      33000 m/s             prt=          0         
         using Berkeley noise model       noiMod=          1         
        noia=    9.9e+18                noib=       2400         
        noic=    1.4e-12                  em=    4.1e+07         
          ef=          1                  af=          1         
          kf=          0              gdsnoi=-1.23457e-29         
         using Hspice diodes            using ACM 
         acm=         0                 hdif=         0 meter    
        ldif=         0 meter             js=         0 amp/m^2  
         jsw=         0 amp/m            xti=         0          
           n=         1                   cj=0.00188286 f/m^2    
          mj=  0.467979                   pb=  0.989132 V        
        cjsw=3.67186e-10 f/m             mjsw=  0.356213          
         php=  0.989132 V               pbsw (not used)           
      cjgate=3.67186e-10 f/m            cjswg (not used)           
       mjswg (not used)                 pbswg (not used)           
       lketa= -0.0232426               lvsat=     125700         
       wketa= 0.00410049               pvth0= 0.00392376         
         pk2= 0.00206176               prdsw=    15.3953         
 ***************************************************************************
 ***        model parameters  model name:  49:tsmc25dp model type:pmos   ***
 ***************************************************************************

   *** general parameters ***
    deriv=   0.           

   ***  level 49  model parameters  ***

      hspver=    2006.03               level=         49         
     version=        3.1            paramchk=          0         
      apwarn=          1                lite=          0         
      vgslim=          0             binUnit=          1         
      capMod=          2               xpart=        0.4         
      mobMod=          1              nqsMod=          0         
      stiMod=          0                 elm=          5         
    sfvtflag=          0                 tox=    5.8e-09 meter   
          xj=      1e-07 meter       binflag=          0         
        lmin=          0 meter          lmax=          0 meter   
        wmin=          0 meter          wmax=          0 meter   
        lref=          0 meter          wref=          0 meter   
        lint=8.71907e-09 meter          wint=2.74881e-08 meter   
       lmult=          1               wmult=          1         
          ll=          0                 lln=          1         
          lw=          0                 lwn=          1         
         lwl=          0                  wl=          0         
         wln=          1                  ww=          0         
         wwn=          1                 wwl=          0         
         dwg=-4.08759e-08 m/V             dwb=2.03201e-08 m/V^1/2 
          xl=     -3e-08                  xw=          0         
          a0=    1.38264                 ags=   0.419298 V^-1    
          b0= 2.8441e-06 meter            b1=      5e-06 meter   
        keta=  0.0208695 V^-1           voff=      -0.15 V       
       ngate=          0 cm^-3           vbx=          0 V       
         vbm=         -3 V                xt=   1.55e-07 meter   
        vth0=  -0.615873 V               nch= 4.1589e+17 cm^-3   
        nsub=      6e+16 cm^-3           nlx=      1e-09 meter   
      gamma1=          0 V^-1/2       gamma2=          0 V^-1/2  
          k1=   0.459838 V^1/2            k2=  0.0399415         
          k3=          0                 k3b=    8.74107 V^-1    
          w0=      1e-06 meter          dvt0=   0.624949         
        dvt1=   0.203296                dvt2= -0.0513763 V^-1    
       dvt0w=          0 meter^-1      dvt1w=          0 meter^-1
       dvt2w=          0 V^-1           dsub=    1.02871         
        eta0=   0.324124                etab=    -0.1842 V^-1    
          u0=    158.675 cm^2/V/sec         ua=2.20002e-10 m/V     
          ub=4.45742e-18 (m/V)^2          uc=1.02138e-10 V^-1    
        vsat=     185064 m/sec            a1=          0 v^-1    
          a2=          1               delta=       0.01 V       
        rdsw=    968.546 ohm-um         prwg=  -0.102648 V^-1    
        prwb=     -0.325 V^-1/2           wr=          1         
        pclm=    5.26546             pdiblc1= 0.00422834         
     pdiblc2= 0.00120452             pdiblcb= 0.00237525 V^-1    
      pscbe1=3.01146e+10 V/m          pscbe2=3.03704e-07 V/m     
       drout=          0                pvag=    8.95643         
     nfactor=    1.54605                cdsc=0.000141332 f/m^2   
       cdscb=          0 f/V/m^2       cdscd=          0 f/V/m^2 
         cit=          0 f/m^2        alpha0=          0 m/V     
       beta0=         30 V               dlc=8.71907e-09 meter   
         dwc=2.74881e-08 meter           clc=      1e-07 meter   
         cle=        0.6                cgso=   5.59e-10 f/m     
        cgdo=   5.59e-10 f/m            cgbo=          0 f/m     
        cgsl=          0 f/m            cgdl=          0 f/m     
      ckappa=        0.6                  cf=9.33852e-11 f/m     
        tnom=     300.15 K               kt1=      -0.11 V       
        kt1l=          0                 kt2=      0.022         
         ute=       -1.5                 ua1=   4.31e-09 m/V     
         ub1=  -7.61e-18 (m/V)^2         uc1=   -5.6e-11 m/V^2   
          at=      33000 m/s             prt=          0         
         using Berkeley noise model       noiMod=          1         
        noia=    9.9e+18                noib=       2400         
        noic=    1.4e-12                  em=    4.1e+07         
          ef=          1                  af=          1         
          kf=          0              gdsnoi=-1.23457e-29         
         using Hspice diodes            using ACM 
         acm=         0                 hdif=         0 meter    
        ldif=         0 meter             js=         0 amp/m^2  
         jsw=         0 amp/m            xti=         0          
           n=         1                   cj=0.00188286 f/m^2    
          mj=  0.467979                   pb=  0.989132 V        
        cjsw=3.67186e-10 f/m             mjsw=  0.356213          
         php=  0.989132 V               pbsw (not used)           
      cjgate=3.67186e-10 f/m            cjswg (not used)           
       mjswg (not used)                 pbswg (not used)           
       lketa= -0.0232426               lvsat=     125700         
       wketa= 0.00410049               pvth0= 0.00392376         
         pk2= 0.00206176               prdsw=    15.3953         
 ***************************************************************************
 ***        model parameters  model name:  49:tsmc25dn model type:nmos   ***
 ***************************************************************************

   *** general parameters ***
    deriv=   0.           

   ***  level 49  model parameters  ***

      hspver=    2006.03               level=         49         
     version=        3.1            paramchk=          0         
      apwarn=          1                lite=          0         
      vgslim=          0             binUnit=          1         
      capMod=          2               xpart=        0.4         
      mobMod=          1              nqsMod=          0         
      stiMod=          0                 elm=          5         
    sfvtflag=          0                 tox=    5.8e-09 meter   
          xj=      1e-07 meter       binflag=          0         
        lmin=          0 meter          lmax=          0 meter   
        wmin=          0 meter          wmax=          0 meter   
        lref=          0 meter          wref=          0 meter   
        lint=4.39347e-09 meter          wint= 2.1265e-09 meter   
       lmult=          1               wmult=          1         
          ll=          0                 lln=          1         
          lw=          0                 lwn=          1         
         lwl=          0                  wl=          0         
         wln=          1                  ww=          0         
         wwn=          1                 wwl=          0         
         dwg=-3.40903e-09 m/V             dwb=2.79484e-09 m/V^1/2 
          xl=     -3e-08                  xw=          0         
          a0=    1.23186                 ags=   0.304333 V^-1    
          b0=6.67749e-08 meter            b1=      5e-06 meter   
        keta=0.000851805 V^-1           voff=  -0.102605 V       
       ngate=          0 cm^-3           vbx=          0 V       
         vbm=         -3 V                xt=   1.55e-07 meter   
        vth0=   0.430894 V               nch= 2.3549e+17 cm^-3   
        nsub=      6e+16 cm^-3           nlx= 1.4659e-07 meter   
      gamma1=          0 V^-1/2       gamma2=          0 V^-1/2  
          k1=   0.351943 V^1/2            k2=  0.0298493         
          k3=      0.001                 k3b=  0.0592323 V^-1    
          w0=      1e-05 meter          dvt0=  0.0183405         
        dvt1= 0.00489758                dvt2= -0.0252658 V^-1    
       dvt0w=          0 meter^-1      dvt1w=          0 meter^-1
       dvt2w=          0 V^-1           dsub= 0.00304547         
        eta0= 0.00348737                etab=0.000455799 V^-1    
          u0=    455.303 cm^2/V/sec         ua=5.22359e-10 m/V     
          ub=1.10471e-18 (m/V)^2          uc=3.28789e-11 V^-1    
        vsat=     105099 m/sec            a1=          0 v^-1    
          a2=          1               delta=       0.01 V       
        rdsw=    509.568 ohm-um         prwg=  0.0227558 V^-1    
        prwb=     -0.001 V^-1/2           wr=          1         
        pclm=    1.04463             pdiblc1=   0.144195         
     pdiblc2=0.000451338             pdiblcb=-2.81676e-05 V^-1    
      pscbe1=1.76111e+10 V/m          pscbe2=3.77292e-09 V/m     
       drout=   0.469872                pvag=  0.0361824         
     nfactor=   0.134489                cdsc= 0.00152751 f/m^2   
       cdscb=          0 f/V/m^2       cdscd=          0 f/V/m^2 
         cit=          0 f/m^2        alpha0=          0 m/V     
       beta0=         30 V               dlc=4.39347e-09 meter   
         dwc= 2.1265e-09 meter           clc=      1e-07 meter   
         cle=        0.6                cgso=   6.27e-10 f/m     
        cgdo=   6.27e-10 f/m            cgbo=          0 f/m     
        cgsl=          0 f/m            cgdl=          0 f/m     
      ckappa=        0.6                  cf=9.33852e-11 f/m     
        tnom=     300.15 K               kt1=      -0.11 V       
        kt1l=          0                 kt2=      0.022         
         ute=       -1.5                 ua1=   4.31e-09 m/V     
         ub1=  -7.61e-18 (m/V)^2         uc1=   -5.6e-11 m/V^2   
          at=      33000 m/s             prt=          0         
         using Berkeley noise model       noiMod=          1         
        noia=      1e+20                noib=      50000         
        noic=   -1.4e-12                  em=    4.1e+07         
          ef=          1                  af=          1         
          kf=          0              gdsnoi=-1.23457e-29         
         using Hspice diodes            using ACM 
         acm=         0                 hdif=         0 meter    
        ldif=         0 meter             js=         0 amp/m^2  
         jsw=         0 amp/m            xti=         0          
           n=         1                   cj=0.00191866 f/m^2    
          mj=  0.472173                   pb=  0.978405 V        
        cjsw=4.44159e-10 f/m             mjsw=  0.287112          
         php=  0.978405 V               pbsw (not used)           
      cjgate=4.44159e-10 f/m            cjswg (not used)           
       mjswg (not used)                 pbswg (not used)           
       lketa=-0.00614406               wketa=0.000751269         
       pvth0= 0.00134299                 pk2=-0.00314072         
       prdsw=   -61.8357         
 ***************************************************************************
 ***        model parameters  model name:  50:tsmc25dp model type:pmos   ***
 ***************************************************************************

   *** general parameters ***
    deriv=   0.           

   ***  level 49  model parameters  ***

      hspver=    2006.03               level=         49         
     version=        3.1            paramchk=          0         
      apwarn=          1                lite=          0         
      vgslim=          0             binUnit=          1         
      capMod=          2               xpart=        0.4         
      mobMod=          1              nqsMod=          0         
      stiMod=          0                 elm=          5         
    sfvtflag=          0                 tox=    5.8e-09 meter   
          xj=      1e-07 meter       binflag=          0         
        lmin=          0 meter          lmax=          0 meter   
        wmin=          0 meter          wmax=          0 meter   
        lref=          0 meter          wref=          0 meter   
        lint=8.71907e-09 meter          wint=2.74881e-08 meter   
       lmult=          1               wmult=          1         
          ll=          0                 lln=          1         
          lw=          0                 lwn=          1         
         lwl=          0                  wl=          0         
         wln=          1                  ww=          0         
         wwn=          1                 wwl=          0         
         dwg=-4.08759e-08 m/V             dwb=2.03201e-08 m/V^1/2 
          xl=     -3e-08                  xw=          0         
          a0=    1.38264                 ags=   0.419298 V^-1    
          b0= 2.8441e-06 meter            b1=      5e-06 meter   
        keta=  0.0208695 V^-1           voff=      -0.15 V       
       ngate=          0 cm^-3           vbx=          0 V       
         vbm=         -3 V                xt=   1.55e-07 meter   
        vth0=  -0.615873 V               nch= 4.1589e+17 cm^-3   
        nsub=      6e+16 cm^-3           nlx=      1e-09 meter   
      gamma1=          0 V^-1/2       gamma2=          0 V^-1/2  
          k1=   0.459838 V^1/2            k2=  0.0399415         
          k3=          0                 k3b=    8.74107 V^-1    
          w0=      1e-06 meter          dvt0=   0.624949         
        dvt1=   0.203296                dvt2= -0.0513763 V^-1    
       dvt0w=          0 meter^-1      dvt1w=          0 meter^-1
       dvt2w=          0 V^-1           dsub=    1.02871         
        eta0=   0.324124                etab=    -0.1842 V^-1    
          u0=    158.675 cm^2/V/sec         ua=2.20002e-10 m/V     
          ub=4.45742e-18 (m/V)^2          uc=1.02138e-10 V^-1    
        vsat=     185064 m/sec            a1=          0 v^-1    
          a2=          1               delta=       0.01 V       
        rdsw=    968.546 ohm-um         prwg=  -0.102648 V^-1    
        prwb=     -0.325 V^-1/2           wr=          1         
        pclm=    5.26546             pdiblc1= 0.00422834         
     pdiblc2= 0.00120452             pdiblcb= 0.00237525 V^-1    
      pscbe1=3.01146e+10 V/m          pscbe2=3.03704e-07 V/m     
       drout=          0                pvag=    8.95643         
     nfactor=    1.54605                cdsc=0.000141332 f/m^2   
       cdscb=          0 f/V/m^2       cdscd=          0 f/V/m^2 
         cit=          0 f/m^2        alpha0=          0 m/V     
       beta0=         30 V               dlc=8.71907e-09 meter   
         dwc=2.74881e-08 meter           clc=      1e-07 meter   
         cle=        0.6                cgso=   5.59e-10 f/m     
        cgdo=   5.59e-10 f/m            cgbo=          0 f/m     
        cgsl=          0 f/m            cgdl=          0 f/m     
      ckappa=        0.6                  cf=9.33852e-11 f/m     
        tnom=     300.15 K               kt1=      -0.11 V       
        kt1l=          0                 kt2=      0.022         
         ute=       -1.5                 ua1=   4.31e-09 m/V     
         ub1=  -7.61e-18 (m/V)^2         uc1=   -5.6e-11 m/V^2   
          at=      33000 m/s             prt=          0         
         using Berkeley noise model       noiMod=          1         
        noia=    9.9e+18                noib=       2400         
        noic=    1.4e-12                  em=    4.1e+07         
          ef=          1                  af=          1         
          kf=          0              gdsnoi=-1.23457e-29         
         using Hspice diodes            using ACM 
         acm=         0                 hdif=         0 meter    
        ldif=         0 meter             js=         0 amp/m^2  
         jsw=         0 amp/m            xti=         0          
           n=         1                   cj=0.00188286 f/m^2    
          mj=  0.467979                   pb=  0.989132 V        
        cjsw=3.67186e-10 f/m             mjsw=  0.356213          
         php=  0.989132 V               pbsw (not used)           
      cjgate=3.67186e-10 f/m            cjswg (not used)           
       mjswg (not used)                 pbswg (not used)           
       lketa= -0.0232426               lvsat=     125700         
       wketa= 0.00410049               pvth0= 0.00392376         
         pk2= 0.00206176               prdsw=    15.3953         
 ***************************************************************************
 ***        model parameters  model name:  50:tsmc25dn model type:nmos   ***
 ***************************************************************************

   *** general parameters ***
    deriv=   0.           

   ***  level 49  model parameters  ***

      hspver=    2006.03               level=         49         
     version=        3.1            paramchk=          0         
      apwarn=          1                lite=          0         
      vgslim=          0             binUnit=          1         
      capMod=          2               xpart=        0.4         
      mobMod=          1              nqsMod=          0         
      stiMod=          0                 elm=          5         
    sfvtflag=          0                 tox=    5.8e-09 meter   
          xj=      1e-07 meter       binflag=          0         
        lmin=          0 meter          lmax=          0 meter   
        wmin=          0 meter          wmax=          0 meter   
        lref=          0 meter          wref=          0 meter   
        lint=4.39347e-09 meter          wint= 2.1265e-09 meter   
       lmult=          1               wmult=          1         
          ll=          0                 lln=          1         
          lw=          0                 lwn=          1         
         lwl=          0                  wl=          0         
         wln=          1                  ww=          0         
         wwn=          1                 wwl=          0         
         dwg=-3.40903e-09 m/V             dwb=2.79484e-09 m/V^1/2 
          xl=     -3e-08                  xw=          0         
          a0=    1.23186                 ags=   0.304333 V^-1    
          b0=6.67749e-08 meter            b1=      5e-06 meter   
        keta=0.000851805 V^-1           voff=  -0.102605 V       
       ngate=          0 cm^-3           vbx=          0 V       
         vbm=         -3 V                xt=   1.55e-07 meter   
        vth0=   0.430894 V               nch= 2.3549e+17 cm^-3   
        nsub=      6e+16 cm^-3           nlx= 1.4659e-07 meter   
      gamma1=          0 V^-1/2       gamma2=          0 V^-1/2  
          k1=   0.351943 V^1/2            k2=  0.0298493         
          k3=      0.001                 k3b=  0.0592323 V^-1    
          w0=      1e-05 meter          dvt0=  0.0183405         
        dvt1= 0.00489758                dvt2= -0.0252658 V^-1    
       dvt0w=          0 meter^-1      dvt1w=          0 meter^-1
       dvt2w=          0 V^-1           dsub= 0.00304547         
        eta0= 0.00348737                etab=0.000455799 V^-1    
          u0=    455.303 cm^2/V/sec         ua=5.22359e-10 m/V     
          ub=1.10471e-18 (m/V)^2          uc=3.28789e-11 V^-1    
        vsat=     105099 m/sec            a1=          0 v^-1    
          a2=          1               delta=       0.01 V       
        rdsw=    509.568 ohm-um         prwg=  0.0227558 V^-1    
        prwb=     -0.001 V^-1/2           wr=          1         
        pclm=    1.04463             pdiblc1=   0.144195         
     pdiblc2=0.000451338             pdiblcb=-2.81676e-05 V^-1    
      pscbe1=1.76111e+10 V/m          pscbe2=3.77292e-09 V/m     
       drout=   0.469872                pvag=  0.0361824         
     nfactor=   0.134489                cdsc= 0.00152751 f/m^2   
       cdscb=          0 f/V/m^2       cdscd=          0 f/V/m^2 
         cit=          0 f/m^2        alpha0=          0 m/V     
       beta0=         30 V               dlc=4.39347e-09 meter   
         dwc= 2.1265e-09 meter           clc=      1e-07 meter   
         cle=        0.6                cgso=   6.27e-10 f/m     
        cgdo=   6.27e-10 f/m            cgbo=          0 f/m     
        cgsl=          0 f/m            cgdl=          0 f/m     
      ckappa=        0.6                  cf=9.33852e-11 f/m     
        tnom=     300.15 K               kt1=      -0.11 V       
        kt1l=          0                 kt2=      0.022         
         ute=       -1.5                 ua1=   4.31e-09 m/V     
         ub1=  -7.61e-18 (m/V)^2         uc1=   -5.6e-11 m/V^2   
          at=      33000 m/s             prt=          0         
         using Berkeley noise model       noiMod=          1         
        noia=      1e+20                noib=      50000         
        noic=   -1.4e-12                  em=    4.1e+07         
          ef=          1                  af=          1         
          kf=          0              gdsnoi=-1.23457e-29         
         using Hspice diodes            using ACM 
         acm=         0                 hdif=         0 meter    
        ldif=         0 meter             js=         0 amp/m^2  
         jsw=         0 amp/m            xti=         0          
           n=         1                   cj=0.00191866 f/m^2    
          mj=  0.472173                   pb=  0.978405 V        
        cjsw=4.44159e-10 f/m             mjsw=  0.287112          
         php=  0.978405 V               pbsw (not used)           
      cjgate=4.44159e-10 f/m            cjswg (not used)           
       mjswg (not used)                 pbswg (not used)           
       lketa=-0.00614406               wketa=0.000751269         
       pvth0= 0.00134299                 pk2=-0.00314072         
       prdsw=   -61.8357         
 ***************************************************************************
 ***        model parameters  model name:  51:tsmc25dp model type:pmos   ***
 ***************************************************************************

   *** general parameters ***
    deriv=   0.           

   ***  level 49  model parameters  ***

      hspver=    2006.03               level=         49         
     version=        3.1            paramchk=          0         
      apwarn=          1                lite=          0         
      vgslim=          0             binUnit=          1         
      capMod=          2               xpart=        0.4         
      mobMod=          1              nqsMod=          0         
      stiMod=          0                 elm=          5         
    sfvtflag=          0                 tox=    5.8e-09 meter   
          xj=      1e-07 meter       binflag=          0         
        lmin=          0 meter          lmax=          0 meter   
        wmin=          0 meter          wmax=          0 meter   
        lref=          0 meter          wref=          0 meter   
        lint=8.71907e-09 meter          wint=2.74881e-08 meter   
       lmult=          1               wmult=          1         
          ll=          0                 lln=          1         
          lw=          0                 lwn=          1         
         lwl=          0                  wl=          0         
         wln=          1                  ww=          0         
         wwn=          1                 wwl=          0         
         dwg=-4.08759e-08 m/V             dwb=2.03201e-08 m/V^1/2 
          xl=     -3e-08                  xw=          0         
          a0=    1.38264                 ags=   0.419298 V^-1    
          b0= 2.8441e-06 meter            b1=      5e-06 meter   
        keta=  0.0208695 V^-1           voff=      -0.15 V       
       ngate=          0 cm^-3           vbx=          0 V       
         vbm=         -3 V                xt=   1.55e-07 meter   
        vth0=  -0.615873 V               nch= 4.1589e+17 cm^-3   
        nsub=      6e+16 cm^-3           nlx=      1e-09 meter   
      gamma1=          0 V^-1/2       gamma2=          0 V^-1/2  
          k1=   0.459838 V^1/2            k2=  0.0399415         
          k3=          0                 k3b=    8.74107 V^-1    
          w0=      1e-06 meter          dvt0=   0.624949         
        dvt1=   0.203296                dvt2= -0.0513763 V^-1    
       dvt0w=          0 meter^-1      dvt1w=          0 meter^-1
       dvt2w=          0 V^-1           dsub=    1.02871         
        eta0=   0.324124                etab=    -0.1842 V^-1    
          u0=    158.675 cm^2/V/sec         ua=2.20002e-10 m/V     
          ub=4.45742e-18 (m/V)^2          uc=1.02138e-10 V^-1    
        vsat=     185064 m/sec            a1=          0 v^-1    
          a2=          1               delta=       0.01 V       
        rdsw=    968.546 ohm-um         prwg=  -0.102648 V^-1    
        prwb=     -0.325 V^-1/2           wr=          1         
        pclm=    5.26546             pdiblc1= 0.00422834         
     pdiblc2= 0.00120452             pdiblcb= 0.00237525 V^-1    
      pscbe1=3.01146e+10 V/m          pscbe2=3.03704e-07 V/m     
       drout=          0                pvag=    8.95643         
     nfactor=    1.54605                cdsc=0.000141332 f/m^2   
       cdscb=          0 f/V/m^2       cdscd=          0 f/V/m^2 
         cit=          0 f/m^2        alpha0=          0 m/V     
       beta0=         30 V               dlc=8.71907e-09 meter   
         dwc=2.74881e-08 meter           clc=      1e-07 meter   
         cle=        0.6                cgso=   5.59e-10 f/m     
        cgdo=   5.59e-10 f/m            cgbo=          0 f/m     
        cgsl=          0 f/m            cgdl=          0 f/m     
      ckappa=        0.6                  cf=9.33852e-11 f/m     
        tnom=     300.15 K               kt1=      -0.11 V       
        kt1l=          0                 kt2=      0.022         
         ute=       -1.5                 ua1=   4.31e-09 m/V     
         ub1=  -7.61e-18 (m/V)^2         uc1=   -5.6e-11 m/V^2   
          at=      33000 m/s             prt=          0         
         using Berkeley noise model       noiMod=          1         
        noia=    9.9e+18                noib=       2400         
        noic=    1.4e-12                  em=    4.1e+07         
          ef=          1                  af=          1         
          kf=          0              gdsnoi=-1.23457e-29         
         using Hspice diodes            using ACM 
         acm=         0                 hdif=         0 meter    
        ldif=         0 meter             js=         0 amp/m^2  
         jsw=         0 amp/m            xti=         0          
           n=         1                   cj=0.00188286 f/m^2    
          mj=  0.467979                   pb=  0.989132 V        
        cjsw=3.67186e-10 f/m             mjsw=  0.356213          
         php=  0.989132 V               pbsw (not used)           
      cjgate=3.67186e-10 f/m            cjswg (not used)           
       mjswg (not used)                 pbswg (not used)           
       lketa= -0.0232426               lvsat=     125700         
       wketa= 0.00410049               pvth0= 0.00392376         
         pk2= 0.00206176               prdsw=    15.3953         
 ***************************************************************************
 ***        model parameters  model name:  51:tsmc25dn model type:nmos   ***
 ***************************************************************************

   *** general parameters ***
    deriv=   0.           

   ***  level 49  model parameters  ***

      hspver=    2006.03               level=         49         
     version=        3.1            paramchk=          0         
      apwarn=          1                lite=          0         
      vgslim=          0             binUnit=          1         
      capMod=          2               xpart=        0.4         
      mobMod=          1              nqsMod=          0         
      stiMod=          0                 elm=          5         
    sfvtflag=          0                 tox=    5.8e-09 meter   
          xj=      1e-07 meter       binflag=          0         
        lmin=          0 meter          lmax=          0 meter   
        wmin=          0 meter          wmax=          0 meter   
        lref=          0 meter          wref=          0 meter   
        lint=4.39347e-09 meter          wint= 2.1265e-09 meter   
       lmult=          1               wmult=          1         
          ll=          0                 lln=          1         
          lw=          0                 lwn=          1         
         lwl=          0                  wl=          0         
         wln=          1                  ww=          0         
         wwn=          1                 wwl=          0         
         dwg=-3.40903e-09 m/V             dwb=2.79484e-09 m/V^1/2 
          xl=     -3e-08                  xw=          0         
          a0=    1.23186                 ags=   0.304333 V^-1    
          b0=6.67749e-08 meter            b1=      5e-06 meter   
        keta=0.000851805 V^-1           voff=  -0.102605 V       
       ngate=          0 cm^-3           vbx=          0 V       
         vbm=         -3 V                xt=   1.55e-07 meter   
        vth0=   0.430894 V               nch= 2.3549e+17 cm^-3   
        nsub=      6e+16 cm^-3           nlx= 1.4659e-07 meter   
      gamma1=          0 V^-1/2       gamma2=          0 V^-1/2  
          k1=   0.351943 V^1/2            k2=  0.0298493         
          k3=      0.001                 k3b=  0.0592323 V^-1    
          w0=      1e-05 meter          dvt0=  0.0183405         
        dvt1= 0.00489758                dvt2= -0.0252658 V^-1    
       dvt0w=          0 meter^-1      dvt1w=          0 meter^-1
       dvt2w=          0 V^-1           dsub= 0.00304547         
        eta0= 0.00348737                etab=0.000455799 V^-1    
          u0=    455.303 cm^2/V/sec         ua=5.22359e-10 m/V     
          ub=1.10471e-18 (m/V)^2          uc=3.28789e-11 V^-1    
        vsat=     105099 m/sec            a1=          0 v^-1    
          a2=          1               delta=       0.01 V       
        rdsw=    509.568 ohm-um         prwg=  0.0227558 V^-1    
        prwb=     -0.001 V^-1/2           wr=          1         
        pclm=    1.04463             pdiblc1=   0.144195         
     pdiblc2=0.000451338             pdiblcb=-2.81676e-05 V^-1    
      pscbe1=1.76111e+10 V/m          pscbe2=3.77292e-09 V/m     
       drout=   0.469872                pvag=  0.0361824         
     nfactor=   0.134489                cdsc= 0.00152751 f/m^2   
       cdscb=          0 f/V/m^2       cdscd=          0 f/V/m^2 
         cit=          0 f/m^2        alpha0=          0 m/V     
       beta0=         30 V               dlc=4.39347e-09 meter   
         dwc= 2.1265e-09 meter           clc=      1e-07 meter   
         cle=        0.6                cgso=   6.27e-10 f/m     
        cgdo=   6.27e-10 f/m            cgbo=          0 f/m     
        cgsl=          0 f/m            cgdl=          0 f/m     
      ckappa=        0.6                  cf=9.33852e-11 f/m     
        tnom=     300.15 K               kt1=      -0.11 V       
        kt1l=          0                 kt2=      0.022         
         ute=       -1.5                 ua1=   4.31e-09 m/V     
         ub1=  -7.61e-18 (m/V)^2         uc1=   -5.6e-11 m/V^2   
          at=      33000 m/s             prt=          0         
         using Berkeley noise model       noiMod=          1         
        noia=      1e+20                noib=      50000         
        noic=   -1.4e-12                  em=    4.1e+07         
          ef=          1                  af=          1         
          kf=          0              gdsnoi=-1.23457e-29         
         using Hspice diodes            using ACM 
         acm=         0                 hdif=         0 meter    
        ldif=         0 meter             js=         0 amp/m^2  
         jsw=         0 amp/m            xti=         0          
           n=         1                   cj=0.00191866 f/m^2    
          mj=  0.472173                   pb=  0.978405 V        
        cjsw=4.44159e-10 f/m             mjsw=  0.287112          
         php=  0.978405 V               pbsw (not used)           
      cjgate=4.44159e-10 f/m            cjswg (not used)           
       mjswg (not used)                 pbswg (not used)           
       lketa=-0.00614406               wketa=0.000751269         
       pvth0= 0.00134299                 pk2=-0.00314072         
       prdsw=   -61.8357         
 ***************************************************************************
 ***        model parameters  model name:  52:tsmc25dp model type:pmos   ***
 ***************************************************************************

   *** general parameters ***
    deriv=   0.           

   ***  level 49  model parameters  ***

      hspver=    2006.03               level=         49         
     version=        3.1            paramchk=          0         
      apwarn=          1                lite=          0         
      vgslim=          0             binUnit=          1         
      capMod=          2               xpart=        0.4         
      mobMod=          1              nqsMod=          0         
      stiMod=          0                 elm=          5         
    sfvtflag=          0                 tox=    5.8e-09 meter   
          xj=      1e-07 meter       binflag=          0         
        lmin=          0 meter          lmax=          0 meter   
        wmin=          0 meter          wmax=          0 meter   
        lref=          0 meter          wref=          0 meter   
        lint=8.71907e-09 meter          wint=2.74881e-08 meter   
       lmult=          1               wmult=          1         
          ll=          0                 lln=          1         
          lw=          0                 lwn=          1         
         lwl=          0                  wl=          0         
         wln=          1                  ww=          0         
         wwn=          1                 wwl=          0         
         dwg=-4.08759e-08 m/V             dwb=2.03201e-08 m/V^1/2 
          xl=     -3e-08                  xw=          0         
          a0=    1.38264                 ags=   0.419298 V^-1    
          b0= 2.8441e-06 meter            b1=      5e-06 meter   
        keta=  0.0208695 V^-1           voff=      -0.15 V       
       ngate=          0 cm^-3           vbx=          0 V       
         vbm=         -3 V                xt=   1.55e-07 meter   
        vth0=  -0.615873 V               nch= 4.1589e+17 cm^-3   
        nsub=      6e+16 cm^-3           nlx=      1e-09 meter   
      gamma1=          0 V^-1/2       gamma2=          0 V^-1/2  
          k1=   0.459838 V^1/2            k2=  0.0399415         
          k3=          0                 k3b=    8.74107 V^-1    
          w0=      1e-06 meter          dvt0=   0.624949         
        dvt1=   0.203296                dvt2= -0.0513763 V^-1    
       dvt0w=          0 meter^-1      dvt1w=          0 meter^-1
       dvt2w=          0 V^-1           dsub=    1.02871         
        eta0=   0.324124                etab=    -0.1842 V^-1    
          u0=    158.675 cm^2/V/sec         ua=2.20002e-10 m/V     
          ub=4.45742e-18 (m/V)^2          uc=1.02138e-10 V^-1    
        vsat=     185064 m/sec            a1=          0 v^-1    
          a2=          1               delta=       0.01 V       
        rdsw=    968.546 ohm-um         prwg=  -0.102648 V^-1    
        prwb=     -0.325 V^-1/2           wr=          1         
        pclm=    5.26546             pdiblc1= 0.00422834         
     pdiblc2= 0.00120452             pdiblcb= 0.00237525 V^-1    
      pscbe1=3.01146e+10 V/m          pscbe2=3.03704e-07 V/m     
       drout=          0                pvag=    8.95643         
     nfactor=    1.54605                cdsc=0.000141332 f/m^2   
       cdscb=          0 f/V/m^2       cdscd=          0 f/V/m^2 
         cit=          0 f/m^2        alpha0=          0 m/V     
       beta0=         30 V               dlc=8.71907e-09 meter   
         dwc=2.74881e-08 meter           clc=      1e-07 meter   
         cle=        0.6                cgso=   5.59e-10 f/m     
        cgdo=   5.59e-10 f/m            cgbo=          0 f/m     
        cgsl=          0 f/m            cgdl=          0 f/m     
      ckappa=        0.6                  cf=9.33852e-11 f/m     
        tnom=     300.15 K               kt1=      -0.11 V       
        kt1l=          0                 kt2=      0.022         
         ute=       -1.5                 ua1=   4.31e-09 m/V     
         ub1=  -7.61e-18 (m/V)^2         uc1=   -5.6e-11 m/V^2   
          at=      33000 m/s             prt=          0         
         using Berkeley noise model       noiMod=          1         
        noia=    9.9e+18                noib=       2400         
        noic=    1.4e-12                  em=    4.1e+07         
          ef=          1                  af=          1         
          kf=          0              gdsnoi=-1.23457e-29         
         using Hspice diodes            using ACM 
         acm=         0                 hdif=         0 meter    
        ldif=         0 meter             js=         0 amp/m^2  
         jsw=         0 amp/m            xti=         0          
           n=         1                   cj=0.00188286 f/m^2    
          mj=  0.467979                   pb=  0.989132 V        
        cjsw=3.67186e-10 f/m             mjsw=  0.356213          
         php=  0.989132 V               pbsw (not used)           
      cjgate=3.67186e-10 f/m            cjswg (not used)           
       mjswg (not used)                 pbswg (not used)           
       lketa= -0.0232426               lvsat=     125700         
       wketa= 0.00410049               pvth0= 0.00392376         
         pk2= 0.00206176               prdsw=    15.3953         
 ***************************************************************************
 ***        model parameters  model name:  52:tsmc25dn model type:nmos   ***
 ***************************************************************************

   *** general parameters ***
    deriv=   0.           

   ***  level 49  model parameters  ***

      hspver=    2006.03               level=         49         
     version=        3.1            paramchk=          0         
      apwarn=          1                lite=          0         
      vgslim=          0             binUnit=          1         
      capMod=          2               xpart=        0.4         
      mobMod=          1              nqsMod=          0         
      stiMod=          0                 elm=          5         
    sfvtflag=          0                 tox=    5.8e-09 meter   
          xj=      1e-07 meter       binflag=          0         
        lmin=          0 meter          lmax=          0 meter   
        wmin=          0 meter          wmax=          0 meter   
        lref=          0 meter          wref=          0 meter   
        lint=4.39347e-09 meter          wint= 2.1265e-09 meter   
       lmult=          1               wmult=          1         
          ll=          0                 lln=          1         
          lw=          0                 lwn=          1         
         lwl=          0                  wl=          0         
         wln=          1                  ww=          0         
         wwn=          1                 wwl=          0         
         dwg=-3.40903e-09 m/V             dwb=2.79484e-09 m/V^1/2 
          xl=     -3e-08                  xw=          0         
          a0=    1.23186                 ags=   0.304333 V^-1    
          b0=6.67749e-08 meter            b1=      5e-06 meter   
        keta=0.000851805 V^-1           voff=  -0.102605 V       
       ngate=          0 cm^-3           vbx=          0 V       
         vbm=         -3 V                xt=   1.55e-07 meter   
        vth0=   0.430894 V               nch= 2.3549e+17 cm^-3   
        nsub=      6e+16 cm^-3           nlx= 1.4659e-07 meter   
      gamma1=          0 V^-1/2       gamma2=          0 V^-1/2  
          k1=   0.351943 V^1/2            k2=  0.0298493         
          k3=      0.001                 k3b=  0.0592323 V^-1    
          w0=      1e-05 meter          dvt0=  0.0183405         
        dvt1= 0.00489758                dvt2= -0.0252658 V^-1    
       dvt0w=          0 meter^-1      dvt1w=          0 meter^-1
       dvt2w=          0 V^-1           dsub= 0.00304547         
        eta0= 0.00348737                etab=0.000455799 V^-1    
          u0=    455.303 cm^2/V/sec         ua=5.22359e-10 m/V     
          ub=1.10471e-18 (m/V)^2          uc=3.28789e-11 V^-1    
[...]
                  xi23.mp1:g                                                          
 xi23.net049      xi23.mn3:d       xi23.mn0:g       xi23.mn1:s       xi23.mp0:g       
                  xi23.mp1:s                                                          
 xi22.net030      xi22.mn2:s       xi22.mn0:d       xi22.mn1:g       xi22.mp0:d       
                  xi22.mp1:g                                                          
 xi22.net049      xi22.mn3:d       xi22.mn0:g       xi22.mn1:s       xi22.mp0:g       
                  xi22.mp1:s                                                          
 xi21.net030      xi21.mn2:s       xi21.mn0:d       xi21.mn1:g       xi21.mp0:d       
                  xi21.mp1:g                                                          
 xi21.net049      xi21.mn3:d       xi21.mn0:g       xi21.mn1:s       xi21.mp0:g       
                  xi21.mp1:s                                                          
 xi20.net030      xi20.mn2:s       xi20.mn0:d       xi20.mn1:g       xi20.mp0:d       
                  xi20.mp1:g                                                          
 xi20.net049      xi20.mn3:d       xi20.mn0:g       xi20.mn1:s       xi20.mp0:g       
                  xi20.mp1:s                                                          
 xi19.net030      xi19.mn2:s       xi19.mn0:d       xi19.mn1:g       xi19.mp0:d       
                  xi19.mp1:g                                                          
 xi19.net049      xi19.mn3:d       xi19.mn0:g       xi19.mn1:s       xi19.mp0:g       
                  xi19.mp1:s                                                          
 xi18.net030      xi18.mn2:s       xi18.mn0:d       xi18.mn1:g       xi18.mp0:d       
                  xi18.mp1:g                                                          
 xi18.net049      xi18.mn3:d       xi18.mn0:g       xi18.mn1:s       xi18.mp0:g       
                  xi18.mp1:s                                                          
 xi17.net030      xi17.mn2:s       xi17.mn0:d       xi17.mn1:g       xi17.mp0:d       
                  xi17.mp1:g                                                          
 xi17.net049      xi17.mn3:d       xi17.mn0:g       xi17.mn1:s       xi17.mp0:g       
                  xi17.mp1:s                                                          
 xi16.net030      xi16.mn2:s       xi16.mn0:d       xi16.mn1:g       xi16.mp0:d       
                  xi16.mp1:g                                                          
 xi16.net049      xi16.mn3:d       xi16.mn0:g       xi16.mn1:s       xi16.mp0:g       
                  xi16.mp1:s                                                          
 xi15.net030      xi15.mn2:s       xi15.mn0:d       xi15.mn1:g       xi15.mp0:d       
                  xi15.mp1:g                                                          
 xi15.net049      xi15.mn3:d       xi15.mn0:g       xi15.mn1:s       xi15.mp0:g       
                  xi15.mp1:s                                                          
 xi14.net030      xi14.mn2:s       xi14.mn0:d       xi14.mn1:g       xi14.mp0:d       
                  xi14.mp1:g                                                          
 xi14.net049      xi14.mn3:d       xi14.mn0:g       xi14.mn1:s       xi14.mp0:g       
                  xi14.mp1:s                                                          
 xi13.net030      xi13.mn2:s       xi13.mn0:d       xi13.mn1:g       xi13.mp0:d       
                  xi13.mp1:g                                                          
 xi13.net049      xi13.mn3:d       xi13.mn0:g       xi13.mn1:s       xi13.mp0:g       
                  xi13.mp1:s                                                          
 xi12.net030      xi12.mn2:s       xi12.mn0:d       xi12.mn1:g       xi12.mp0:d       
                  xi12.mp1:g                                                          
 xi12.net049      xi12.mn3:d       xi12.mn0:g       xi12.mn1:s       xi12.mp0:g       
                  xi12.mp1:s                                                          
 xi11.net030      xi11.mn2:s       xi11.mn0:d       xi11.mn1:g       xi11.mp0:d       
                  xi11.mp1:g                                                          
 xi11.net049      xi11.mn3:d       xi11.mn0:g       xi11.mn1:s       xi11.mp0:g       
                  xi11.mp1:s                                                          
 xi10.net030      xi10.mn2:s       xi10.mn0:d       xi10.mn1:g       xi10.mp0:d       
                  xi10.mp1:g                                                          
 xi10.net049      xi10.mn3:d       xi10.mn0:g       xi10.mn1:s       xi10.mp0:g       
                  xi10.mp1:s                                                          
 xi9.net030       xi9.mn2:s        xi9.mn0:d        xi9.mn1:g        xi9.mp0:d        
                  xi9.mp1:g                                                           
 xi9.net049       xi9.mn3:d        xi9.mn0:g        xi9.mn1:s        xi9.mp0:g        
                  xi9.mp1:s                                                           
 xi8.net030       xi8.mn2:s        xi8.mn0:d        xi8.mn1:g        xi8.mp0:d        
                  xi8.mp1:g                                                           
 xi8.net049       xi8.mn3:d        xi8.mn0:g        xi8.mn1:s        xi8.mp0:g        
                  xi8.mp1:s                                                           
 xi7.net030       xi7.mn2:s        xi7.mn0:d        xi7.mn1:g        xi7.mp0:d        
                  xi7.mp1:g                                                           
 xi7.net049       xi7.mn3:d        xi7.mn0:g        xi7.mn1:s        xi7.mp0:g        
                  xi7.mp1:s                                                           
 xi6.net030       xi6.mn2:s        xi6.mn0:d        xi6.mn1:g        xi6.mp0:d        
                  xi6.mp1:g                                                           
 xi6.net049       xi6.mn3:d        xi6.mn0:g        xi6.mn1:s        xi6.mp0:g        
                  xi6.mp1:s                                                           
 xi5.net030       xi5.mn2:s        xi5.mn0:d        xi5.mn1:g        xi5.mp0:d        
                  xi5.mp1:g                                                           
 xi5.net049       xi5.mn3:d        xi5.mn0:g        xi5.mn1:s        xi5.mp0:g        
                  xi5.mp1:s                                                           
 xi4.net030       xi4.mn2:s        xi4.mn0:d        xi4.mn1:g        xi4.mp0:d        
                  xi4.mp1:g                                                           
 xi4.net049       xi4.mn3:d        xi4.mn0:g        xi4.mn1:s        xi4.mp0:g        
                  xi4.mp1:s                                                           
 xi3.net030       xi3.mn2:s        xi3.mn0:d        xi3.mn1:g        xi3.mp0:d        
                  xi3.mp1:g                                                           
 xi3.net049       xi3.mn3:d        xi3.mn0:g        xi3.mn1:s        xi3.mp0:g        
                  xi3.mp1:s                                                           
 xi2.net030       xi2.mn2:s        xi2.mn0:d        xi2.mn1:g        xi2.mp0:d        
                  xi2.mp1:g                                                           
 xi2.net049       xi2.mn3:d        xi2.mn0:g        xi2.mn1:s        xi2.mp0:g        
                  xi2.mp1:s                                                           
 xi1.net030       xi1.mn2:s        xi1.mn0:d        xi1.mn1:g        xi1.mp0:d        
                  xi1.mp1:g                                                           
 xi1.net049       xi1.mn3:d        xi1.mn0:g        xi1.mn1:s        xi1.mp0:g        
                  xi1.mp1:s                                                           
 xi0.net030       xi0.mn2:s        xi0.mn0:d        xi0.mn1:g        xi0.mp0:d        
                  xi0.mp1:g                                                           
 xi0.net049       xi0.mn3:d        xi0.mn0:g        xi0.mn1:s        xi0.mp0:g        
                  xi0.mp1:s                                                           
 325:net37        325:m7:d         325:m6:s                                           
 325:net44        325:m6:g         325:m1:d         325:m0:d         325:m5:g         
                  325:m2:d                                                            
 325:net47        325:m7:g         325:m9:d         325:m8:d         325:m4:g         
                  325:m10:d                                                           
 325:net59        325:m2:s         325:m3:d                                           
 325:net68        325:m11:d        325:m10:s                                          
 326:net37        326:m7:d         326:m6:s                                           
 326:net44        326:m6:g         326:m1:d         326:m0:d         326:m5:g         
                  326:m2:d                                                            
 326:net47        326:m7:g         326:m9:d         326:m8:d         326:m4:g         
                  326:m10:d                                                           
 326:net59        326:m2:s         326:m3:d                                           
 326:net68        326:m11:d        326:m10:s                                          
 327:net37        327:m7:d         327:m6:s                                           
 327:net44        327:m6:g         327:m1:d         327:m0:d         327:m5:g         
                  327:m2:d                                                            
 327:net47        327:m7:g         327:m9:d         327:m8:d         327:m4:g         
                  327:m10:d                                                           
 327:net59        327:m2:s         327:m3:d                                           
 327:net68        327:m11:d        327:m10:s                                          
 328:net37        328:m7:d         328:m6:s                                           
 328:net44        328:m6:g         328:m1:d         328:m0:d         328:m5:g         
                  328:m2:d                                                            
 328:net47        328:m7:g         328:m9:d         328:m8:d         328:m4:g         
                  328:m10:d                                                           
 328:net59        328:m2:s         328:m3:d                                           
 328:net68        328:m11:d        328:m10:s                                          
 329:net37        329:m7:d         329:m6:s                                           
 329:net44        329:m6:g         329:m1:d         329:m0:d         329:m5:g         
                  329:m2:d                                                            
 329:net47        329:m7:g         329:m9:d         329:m8:d         329:m4:g         
                  329:m10:d                                                           
 329:net59        329:m2:s         329:m3:d                                           
 329:net68        329:m11:d        329:m10:s                                          
 330:net37        330:m7:d         330:m6:s                                           
 330:net44        330:m6:g         330:m1:d         330:m0:d         330:m5:g         
                  330:m2:d                                                            
 330:net47        330:m7:g         330:m9:d         330:m8:d         330:m4:g         
                  330:m10:d                                                           
 330:net59        330:m2:s         330:m3:d                                           
 330:net68        330:m11:d        330:m10:s                                          
 331:net37        331:m7:d         331:m6:s                                           
 331:net44        331:m6:g         331:m1:d         331:m0:d         331:m5:g         
                  331:m2:d                                                            
 331:net47        331:m7:g         331:m9:d         331:m8:d         331:m4:g         
                  331:m10:d                                                           
 331:net59        331:m2:s         331:m3:d                                           
 331:net68        331:m11:d        331:m10:s                                          
 332:net37        332:m7:d         332:m6:s                                           
 332:net44        332:m6:g         332:m1:d         332:m0:d         332:m5:g         
                  332:m2:d                                                            
 332:net47        332:m7:g         332:m9:d         332:m8:d         332:m4:g         
                  332:m10:d                                                           
 332:net59        332:m2:s         332:m3:d                                           
 332:net68        332:m11:d        332:m10:s                                          
 333:net37        333:m7:d         333:m6:s                                           
 333:net44        333:m6:g         333:m1:d         333:m0:d         333:m5:g         
                  333:m2:d                                                            
 333:net47        333:m7:g         333:m9:d         333:m8:d         333:m4:g         
                  333:m10:d                                                           
 333:net59        333:m2:s         333:m3:d                                           
 333:net68        333:m11:d        333:m10:s                                          
 334:net37        334:m7:d         334:m6:s                                           
 334:net44        334:m6:g         334:m1:d         334:m0:d         334:m5:g         
                  334:m2:d                                                            
 334:net47        334:m7:g         334:m9:d         334:m8:d         334:m4:g         
                  334:m10:d                                                           
 334:net59        334:m2:s         334:m3:d                                           
 334:net68        334:m11:d        334:m10:s                                          
 335:net37        335:m7:d         335:m6:s                                           
 335:net44        335:m6:g         335:m1:d         335:m0:d         335:m5:g         
                  335:m2:d                                                            
 335:net47        335:m7:g         335:m9:d         335:m8:d         335:m4:g         
                  335:m10:d                                                           
 335:net59        335:m2:s         335:m3:d                                           
 335:net68        335:m11:d        335:m10:s                                          
 336:net37        336:m7:d         336:m6:s                                           
 336:net44        336:m6:g         336:m1:d         336:m0:d         336:m5:g         
                  336:m2:d                                                            
 336:net47        336:m7:g         336:m9:d         336:m8:d         336:m4:g         
                  336:m10:d                                                           
 336:net59        336:m2:s         336:m3:d                                           
 336:net68        336:m11:d        336:m10:s                                          
 337:net37        337:m7:d         337:m6:s                                           
 337:net44        337:m6:g         337:m1:d         337:m0:d         337:m5:g         
                  337:m2:d                                                            
 337:net47        337:m7:g         337:m9:d         337:m8:d         337:m4:g         
                  337:m10:d                                                           
 337:net59        337:m2:s         337:m3:d                                           
 337:net68        337:m11:d        337:m10:s                                          
 338:net37        338:m7:d         338:m6:s                                           
 338:net44        338:m6:g         338:m1:d         338:m0:d         338:m5:g         
                  338:m2:d                                                            
 338:net47        338:m7:g         338:m9:d         338:m8:d         338:m4:g         
                  338:m10:d                                                           
 338:net59        338:m2:s         338:m3:d                                           
 338:net68        338:m11:d        338:m10:s                                          
 339:net37        339:m7:d         339:m6:s                                           
 339:net44        339:m6:g         339:m1:d         339:m0:d         339:m5:g         
                  339:m2:d                                                            
 339:net47        339:m7:g         339:m9:d         339:m8:d         339:m4:g         
                  339:m10:d                                                           
 339:net59        339:m2:s         339:m3:d                                           
 339:net68        339:m11:d        339:m10:s                                          
 340:net37        340:m7:d         340:m6:s                                           
 340:net44        340:m6:g         340:m1:d         340:m0:d         340:m5:g         
                  340:m2:d                                                            
 340:net47        340:m7:g         340:m9:d         340:m8:d         340:m4:g         
                  340:m10:d                                                           
 340:net59        340:m2:s         340:m3:d                                           
 340:net68        340:m11:d        340:m10:s                                          

          ***** job aborted
1****** HSPICE -- F-2011.09-SP2 32-BIT (Feb 27 2012) linux ******               
 ******  
 

  ******  job statistics summary tnom=  25.000 temp=  25.000 *****
  
  
 ******  Machine Information  ******
 CPU:
 model name	: Intel(R) Xeon(R) CPU E3-1240 V2 @ 3.40GHz
 cpu MHz	: 3401.000
  
 OS:
 Linux version 2.6.32-431.1.2.0.1.el6.x86_64 (mockbuild@c6b9.bsys.dev.centos.org
 ) (gcc version 4.4.7 20120313 (Red Hat 4.4.7-4) (GCC) ) #1 SMP Fri Dec 13 13:06
 :13 UTC 2013


  ******  HSPICE Threads Information  ******

  Command Line Threads Count :     1
  Available CPU Count        :     8
  Actual Threads Count       :     1


  ******  Circuit Statistics  ******
  # nodes       =     903 # elements   =    2202
  # resistors   =      16 # capacitors =       0 # inductors   =       0
  # mutual_inds =       0 # vccs       =       0 # vcvs        =       0
  # cccs        =       0 # ccvs       =       0 # volt_srcs   =      26
  # curr_srcs   =       0 # diodes     =       0 # bjts        =       0
  # jfets       =       0 # mosfets    =    2160 # U elements  =       0
  # T elements  =       0 # W elements =       0 # B elements  =       0
  # S elements  =       0 # P elements =       0 # va device   =       0
  # vector_srcs =       0


  ******  Runtime Statistics (seconds)  ******

  analysis           time    # points   tot. iter  conv.iter
  op point           0.00           1           0
  transient          0.00        5001           0           0 rev=         0
  readin             0.03
  errchk             0.00
  setup              0.00
  output             0.00


           peak memory used         95.89 megabytes
           total cpu time            0.28 seconds
           total elapsed time        0.65 seconds
           job started at     17:31:26 03/18/2014
           job ended   at     17:31:27 03/18/2014


 lic: Release hspice token(s) 
